power-feeders/Taxonomy_feeders/R5_1247_2_t6.glm
//Input feeder information for Taxonomy Feeders with different cases.
//Started on 10/21/09. This version created 25-Feb-2019 18:35:41.
// This version was created to perform FY11 Department of Energy
// analysis on the benefits of the SGIG grant projects.

clock {
     timezone EST+5EDT;
     starttime '2009-01-01 00:00:00';
     stoptime '2010-01-02 00:00:00';
}

#include "appliance_schedules.glm";
#include "water_and_setpoint_schedule_v5.glm";
#include "commercial_schedules.glm";
#include "daily_elasticity_schedules.glm";
//#define stylesheet=http://gridlab-d.svn.sourceforge.net/viewvc/gridlab-d/trunk/core/gridlabd-2_0
#set minimum_timestep=60;
#set profiler=1;
#set relax_naming_rules=1;

module tape;
module climate;
module residential {
     implicit_enduses NONE;
};
module powerflow {
     solver_method NR;
     NR_iteration_limit 50;
};

class player {
     double value;
};

module market;

class auction {
     double my_avg;
     double my_std;
};

object player {
     name CPP_days_R5;
     file CPP_days_R5.player;
};

object auction {
     name Market_1;
     period 900;
     special_mode BUYERS_ONLY;
     unit kW;
     my_avg 0.083530;
     my_std 0.029074;
     object player {
          file R5_1247_2_t0_TOU.player;
          loop 10;
          property current_market.clearing_price;
     };
}

object climate {
     name "FL-Miami";
     tmyfile "FL-Miami.tmy2";
     interpolate QUADRATIC;
};

//Configurations

object regulator_configuration {     
      name regulator_configuration_1563;     
      name feeder_reg_cfg;     
      Control OUTPUT_VOLTAGE;     
      band_center 7500.0;     
      band_width 120;     
      connect_type WYE_WYE;     
      time_delay 30;     
      raise_taps 16;     
      lower_taps 16;     
      regulation 0.10;     
      tap_pos_A 0;     
      tap_pos_B 0;     
      tap_pos_C 0;     
}       

object line_configuration {     
      name line_configuration_23;     
      conductor_A overhead_line_conductor_2;     
      conductor_B overhead_line_conductor_2;     
      conductor_C overhead_line_conductor_2;     
      conductor_N overhead_line_conductor_2;     
      spacing line_spacing_14;     
}       

object line_configuration {     
      name line_configuration_24;     
      conductor_C overhead_line_conductor_2;     
      conductor_N overhead_line_conductor_2;     
      spacing line_spacing_15;     
}       

object line_configuration {     
      name line_configuration_25;     
      conductor_A overhead_line_conductor_2;     
      conductor_N overhead_line_conductor_2;     
      spacing line_spacing_16;     
}       

object line_configuration {     
      name line_configuration_26;     
      conductor_A overhead_line_conductor_3;     
      conductor_B overhead_line_conductor_3;     
      conductor_C overhead_line_conductor_3;     
      conductor_N overhead_line_conductor_3;     
      spacing line_spacing_17;     
}       

object line_configuration {     
      name line_configuration_27;     
      conductor_A overhead_line_conductor_4;     
      conductor_B overhead_line_conductor_4;     
      conductor_N overhead_line_conductor_4;     
      spacing line_spacing_18;     
}       

object line_configuration {     
      name line_configuration_28;     
      conductor_A overhead_line_conductor_5;     
      conductor_B overhead_line_conductor_5;     
      conductor_C overhead_line_conductor_5;     
      conductor_N overhead_line_conductor_5;     
      spacing line_spacing_17;     
}       

object line_configuration {     
      name line_configuration_29;     
      conductor_A overhead_line_conductor_3;     
      conductor_N overhead_line_conductor_3;     
      spacing line_spacing_19;     
}       

object line_configuration {     
      name line_configuration_30;     
      conductor_A overhead_line_conductor_4;     
      conductor_B overhead_line_conductor_4;     
      conductor_C overhead_line_conductor_4;     
      conductor_N overhead_line_conductor_4;     
      spacing line_spacing_17;     
}       

object line_configuration {     
      name line_configuration_31;     
      conductor_A overhead_line_conductor_6;     
      conductor_B overhead_line_conductor_6;     
      conductor_C overhead_line_conductor_6;     
      conductor_N overhead_line_conductor_6;     
      spacing line_spacing_17;     
}       

object line_configuration {     
      name line_configuration_32;     
      conductor_A overhead_line_conductor_7;     
      conductor_C overhead_line_conductor_7;     
      conductor_N overhead_line_conductor_7;     
      spacing line_spacing_20;     
}       

object line_configuration {     
      name line_configuration_33;     
      conductor_A overhead_line_conductor_6;     
      conductor_B overhead_line_conductor_6;     
      conductor_C overhead_line_conductor_6;     
      conductor_N overhead_line_conductor_6;     
      spacing line_spacing_17;     
}       

object line_configuration {     
      name line_configuration_34;     
      conductor_A overhead_line_conductor_6;     
      conductor_C overhead_line_conductor_6;     
      conductor_N overhead_line_conductor_6;     
      spacing line_spacing_20;     
}       

object line_configuration {     
      name line_configuration_35;     
      conductor_C overhead_line_conductor_3;     
      conductor_N overhead_line_conductor_3;     
      spacing line_spacing_21;     
}       

object line_configuration {     
      name line_configuration_36;     
      conductor_A overhead_line_conductor_8;     
      conductor_B overhead_line_conductor_8;     
      conductor_C overhead_line_conductor_8;     
      conductor_N overhead_line_conductor_8;     
      spacing line_spacing_17;     
}       

object line_configuration {     
      name line_configuration_37;     
      conductor_B overhead_line_conductor_3;     
      conductor_N overhead_line_conductor_3;     
      spacing line_spacing_22;     
}       

object line_configuration {     
      name line_configuration_38;     
      conductor_A overhead_line_conductor_6;     
      conductor_C overhead_line_conductor_6;     
      conductor_N overhead_line_conductor_6;     
      spacing line_spacing_20;     
}       

object line_configuration {     
      name line_configuration_39;     
      conductor_B overhead_line_conductor_6;     
      conductor_N overhead_line_conductor_6;     
      spacing line_spacing_22;     
}       

object line_configuration {     
      name line_configuration_40;     
      conductor_C overhead_line_conductor_7;     
      conductor_N overhead_line_conductor_7;     
      spacing line_spacing_21;     
}       

object line_configuration {     
      name line_configuration_41;     
      conductor_A overhead_line_conductor_3;     
      conductor_B overhead_line_conductor_3;     
      conductor_N overhead_line_conductor_3;     
      spacing line_spacing_18;     
}       

object line_configuration {     
      name line_configuration_42;     
      conductor_A overhead_line_conductor_4;     
      conductor_C overhead_line_conductor_4;     
      conductor_N overhead_line_conductor_4;     
      spacing line_spacing_20;     
}       

object line_configuration {     
      name line_configuration_43;     
      conductor_B overhead_line_conductor_4;     
      conductor_N overhead_line_conductor_4;     
      spacing line_spacing_22;     
}       

object line_configuration {     
      name line_configuration_44;     
      conductor_C overhead_line_conductor_4;     
      conductor_N overhead_line_conductor_4;     
      spacing line_spacing_21;     
}       

object line_configuration {     
      name line_configuration_45;     
      conductor_A overhead_line_conductor_4;     
      conductor_B overhead_line_conductor_4;     
      conductor_C overhead_line_conductor_4;     
      conductor_N overhead_line_conductor_4;     
      spacing line_spacing_17;     
}       

object line_configuration {     
      name line_configuration_46;     
      conductor_A underground_line_conductor_9;     
      conductor_B underground_line_conductor_9;     
      conductor_C underground_line_conductor_9;     
      conductor_N underground_line_conductor_9;     
      spacing line_spacing_17;     
}       

object line_configuration {     
      name line_configuration_47;     
      conductor_A underground_line_conductor_10;     
      conductor_B underground_line_conductor_10;     
      conductor_C underground_line_conductor_10;     
      conductor_N underground_line_conductor_10;     
      spacing line_spacing_17;     
}       

object line_configuration {     
      name line_configuration_48;     
      conductor_A underground_line_conductor_9;     
      conductor_N underground_line_conductor_9;     
      spacing line_spacing_19;     
}       

object line_configuration {     
      name line_configuration_49;     
      conductor_A underground_line_conductor_11;     
      conductor_B underground_line_conductor_11;     
      conductor_C underground_line_conductor_11;     
      conductor_N underground_line_conductor_11;     
      spacing line_spacing_17;     
}       

object line_configuration {     
      name line_configuration_50;     
      conductor_A underground_line_conductor_12;     
      conductor_B underground_line_conductor_12;     
      conductor_C underground_line_conductor_12;     
      conductor_N underground_line_conductor_12;     
      spacing line_spacing_17;     
}       

object line_configuration {     
      name line_configuration_51;     
      conductor_C underground_line_conductor_9;     
      conductor_N underground_line_conductor_9;     
      spacing line_spacing_21;     
}       

object line_spacing {     
      name line_spacing_14;     
      distance_AB 48.0 in;    
      distance_BC 48.0 in;    
      distance_AC 48.0 in;    
      distance_AN 36.0 in;    
      distance_BN 36.0 in;    
      distance_CN 36.0 in;    
}       

object line_spacing {     
      name line_spacing_15;     
      distance_CN 36.0 in;    
}       

object line_spacing {     
      name line_spacing_16;     
      distance_AN 36.0 in;    
}       

object line_spacing {     
      name line_spacing_17;     
      distance_AB 36.0 in;    
      distance_BC 36.0 in;    
      distance_AC 36.0 in;    
      distance_AN 48.0 in;    
      distance_BN 48.0 in;    
      distance_CN 48.0 in;    
}       

object line_spacing {     
      name line_spacing_18;     
      distance_AB 36.0 in;    
      distance_AN 48.0 in;    
      distance_BN 48.0 in;    
}       

object line_spacing {     
      name line_spacing_19;     
      distance_AN 48.0 in;    
}       

object line_spacing {     
      name line_spacing_20;     
      distance_AC 36.0 in;    
      distance_AN 48.0 in;    
      distance_CN 48.0 in;    
}       

object line_spacing {     
      name line_spacing_21;     
      distance_CN 48.0 in;    
}       

object line_spacing {     
      name line_spacing_22;     
      distance_BN 48.0 in;    
}       

object overhead_line_conductor {     
      name overhead_line_conductor_2;     
      //name 715 ACSR;    
      rating.summer.continuous 891.0;     
      geometric_mean_radius 0.03550 ft;    
      resistance 0.14420;     
}       

object overhead_line_conductor {     
      name overhead_line_conductor_3;     
      //name 1/0 AAC;    
      rating.summer.continuous 230.0;     
      geometric_mean_radius 0.01203 ft;    
      resistance 0.95300;     
}       

object overhead_line_conductor {     
      name overhead_line_conductor_4;     
      //name 2 AAAC;    
      rating.summer.continuous 197.0;     
      geometric_mean_radius 0.00883 ft;    
      resistance 1.51970;     
}       

object overhead_line_conductor {     
      name overhead_line_conductor_5;     
      //name 477 AAC;    
      rating.summer.continuous 714.0;     
      geometric_mean_radius 0.01703 ft;    
      resistance 0.21600;     
}       

object overhead_line_conductor {     
      name overhead_line_conductor_6;     
      //name 4 ACSR;    
      rating.summer.continuous 123.0;     
      geometric_mean_radius 0.00437 ft;    
      resistance 2.53069;     
}       

object overhead_line_conductor {     
      name overhead_line_conductor_7;     
      //name 6 AAC;    
      rating.summer.continuous 90.0;     
      geometric_mean_radius 0.00599 ft;    
      resistance 0.67000;     
}       

object overhead_line_conductor {     
      name overhead_line_conductor_8;     
      //name 2/0 AAC;    
      rating.summer.continuous 270.0;     
      geometric_mean_radius 0.01350 ft;    
      resistance 0.13200;     
}       

object overhead_line_conductor {     
      name overhead_line_conductor_13;     
      //name 4/0 AAC;    
      rating.summer.continuous 360.0;     
      geometric_mean_radius 0.01033 ft;    
      resistance 0.47600;     
}       

object transformer_configuration {     
      name transformer_configuration_1012;     
      connect_type SINGLE_PHASE_CENTER_TAPPED;     
      install_type POLETOP;     
      primary_voltage 7200 V;    
      secondary_voltage 120 V;    
      power_rating 100.0;     
      powerA_rating 100.0;     
      resistance 0.00150;     
      reactance 0.00100;     
      shunt_impedance 496.060+447.035j;     
}       

object transformer_configuration {     
      name transformer_configuration_1013;     
      connect_type SINGLE_PHASE_CENTER_TAPPED;     
      install_type POLETOP;     
      primary_voltage 7200 V;    
      secondary_voltage 120 V;    
      power_rating 50.0;     
      powerA_rating 50.0;     
      resistance 0.00300;     
      reactance 0.00200;     
      shunt_impedance 391.760+428.953j;     
}       

object transformer_configuration {     
      name transformer_configuration_1014;     
      connect_type SINGLE_PHASE_CENTER_TAPPED;     
      install_type POLETOP;     
      primary_voltage 7200 V;    
      secondary_voltage 120 V;    
      power_rating 30.0;     
      powerA_rating 30.0;     
      resistance 0.00500;     
      reactance 0.00333;     
      shunt_impedance 350.040+362.334j;     
}       

object transformer_configuration {     
      name transformer_configuration_1015;     
      connect_type SINGLE_PHASE_CENTER_TAPPED;     
      install_type POLETOP;     
      primary_voltage 7200 V;    
      secondary_voltage 120 V;    
      power_rating 25.0;     
      powerA_rating 25.0;     
      resistance 0.00600;     
      reactance 0.00400;     
      shunt_impedance 339.610+309.986j;     
}       

object transformer_configuration {     
      name transformer_configuration_1016;     
      connect_type SINGLE_PHASE_CENTER_TAPPED;     
      install_type POLETOP;     
      primary_voltage 7200 V;    
      secondary_voltage 120 V;    
      power_rating 5;     
      powerA_rating 5;     
      resistance 0.015;     
      reactance 0.01;     
      shunt_impedance 297.890+286.030j;     
}       

object transformer_configuration {     
      name transformer_configuration_1017;     
      connect_type SINGLE_PHASE_CENTER_TAPPED;     
      install_type POLETOP;     
      primary_voltage 7200 V;    
      secondary_voltage 120 V;    
      power_rating 62.5;     
      powerA_rating 62.5;     
      resistance 0.00240;     
      reactance 0.00160;     
      shunt_impedance 417.835+428.550j;     
}       

object transformer_configuration {     
      name transformer_configuration_1018;     
      connect_type SINGLE_PHASE_CENTER_TAPPED;     
      install_type POLETOP;     
      primary_voltage 7200 V;    
      secondary_voltage 120 V;    
      power_rating 15.0;     
      powerA_rating 15.0;     
      resistance 0.01000;     
      reactance 0.00667;     
      shunt_impedance 318.750+325.763j;     
}       

object transformer_configuration {     
      name transformer_configuration_1019;     
      connect_type SINGLE_PHASE_CENTER_TAPPED;     
      install_type POLETOP;     
      primary_voltage 7200 V;    
      secondary_voltage 120 V;    
      power_rating 37.5;     
      powerA_rating 37.5;     
      resistance 0.00400;     
      reactance 0.00267;     
      shunt_impedance 365.685+303.100j;     
}       

object transformer_configuration {     
      name transformer_configuration_1020;     
      connect_type SINGLE_PHASE_CENTER_TAPPED;     
      install_type POLETOP;     
      primary_voltage 7200 V;    
      secondary_voltage 120 V;    
      power_rating 100.0;     
      powerB_rating 100.0;     
      resistance 0.00150;     
      reactance 0.00100;     
      shunt_impedance 496.060+436.247j;     
}       

object transformer_configuration {     
      name transformer_configuration_1021;     
      connect_type SINGLE_PHASE_CENTER_TAPPED;     
      install_type POLETOP;     
      primary_voltage 7200 V;    
      secondary_voltage 120 V;    
      power_rating 5;     
      powerB_rating 5;     
      resistance 0.015;     
      reactance 0.01;     
      shunt_impedance 297.890+245.077j;     
}       

object transformer_configuration {     
      name transformer_configuration_1022;     
      connect_type SINGLE_PHASE_CENTER_TAPPED;     
      install_type POLETOP;     
      primary_voltage 7200 V;    
      secondary_voltage 120 V;    
      power_rating 75.0;     
      powerB_rating 75.0;     
      resistance 0.00200;     
      reactance 0.00133;     
      shunt_impedance 443.910+440.692j;     
}       

object transformer_configuration {     
      name transformer_configuration_1023;     
      connect_type SINGLE_PHASE_CENTER_TAPPED;     
      install_type POLETOP;     
      primary_voltage 7200 V;    
      secondary_voltage 120 V;    
      power_rating 50.0;     
      powerB_rating 50.0;     
      resistance 0.00300;     
      reactance 0.00200;     
      shunt_impedance 391.760+324.334j;     
}       

object transformer_configuration {     
      name transformer_configuration_1024;     
      connect_type SINGLE_PHASE_CENTER_TAPPED;     
      install_type POLETOP;     
      primary_voltage 7200 V;    
      secondary_voltage 120 V;    
      power_rating 25.0;     
      powerB_rating 25.0;     
      resistance 0.00600;     
      reactance 0.00400;     
      shunt_impedance 339.610+363.447j;     
}       

object transformer_configuration {     
      name transformer_configuration_1025;     
      connect_type SINGLE_PHASE_CENTER_TAPPED;     
      install_type POLETOP;     
      primary_voltage 7200 V;    
      secondary_voltage 120 V;    
      power_rating 62.5;     
      powerB_rating 62.5;     
      resistance 0.00240;     
      reactance 0.00160;     
      shunt_impedance 417.835+375.823j;     
}       

object transformer_configuration {     
      name transformer_configuration_1026;     
      connect_type SINGLE_PHASE_CENTER_TAPPED;     
      install_type POLETOP;     
      primary_voltage 7200 V;    
      secondary_voltage 120 V;    
      power_rating 15.0;     
      powerB_rating 15.0;     
      resistance 0.01000;     
      reactance 0.00667;     
      shunt_impedance 318.750+283.483j;     
}       

object transformer_configuration {     
      name transformer_configuration_1027;     
      connect_type SINGLE_PHASE_CENTER_TAPPED;     
      install_type POLETOP;     
      primary_voltage 7200 V;    
      secondary_voltage 120 V;    
      power_rating 37.5;     
      powerB_rating 37.5;     
      resistance 0.00400;     
      reactance 0.00267;     
      shunt_impedance 365.685+431.163j;     
}       

object transformer_configuration {     
      name transformer_configuration_1028;     
      connect_type SINGLE_PHASE_CENTER_TAPPED;     
      install_type POLETOP;     
      primary_voltage 7200 V;    
      secondary_voltage 120 V;    
      power_rating 50.0;     
      powerC_rating 50.0;     
      resistance 0.00300;     
      reactance 0.00200;     
      shunt_impedance 391.760+476.474j;     
}       

object transformer_configuration {     
      name transformer_configuration_1029;     
      connect_type SINGLE_PHASE_CENTER_TAPPED;     
      install_type POLETOP;     
      primary_voltage 7200 V;    
      secondary_voltage 120 V;    
      power_rating 25.0;     
      powerC_rating 25.0;     
      resistance 0.00600;     
      reactance 0.00400;     
      shunt_impedance 339.610+311.787j;     
}       

object transformer_configuration {     
      name transformer_configuration_1030;     
      connect_type SINGLE_PHASE_CENTER_TAPPED;     
      install_type POLETOP;     
      primary_voltage 7200 V;    
      secondary_voltage 120 V;    
      power_rating 100.0;     
      powerC_rating 100.0;     
      resistance 0.00150;     
      reactance 0.00100;     
      shunt_impedance 496.060+494.222j;     
}       

object transformer_configuration {     
      name transformer_configuration_1031;     
      connect_type SINGLE_PHASE_CENTER_TAPPED;     
      install_type POLETOP;     
      primary_voltage 7200 V;    
      secondary_voltage 120 V;    
      power_rating 5;     
      powerC_rating 5;     
      resistance 0.015;     
      reactance 0.01;     
      shunt_impedance 297.890+356.366j;     
}       

object transformer_configuration {     
      name transformer_configuration_1032;     
      connect_type SINGLE_PHASE_CENTER_TAPPED;     
      install_type POLETOP;     
      primary_voltage 7200 V;    
      secondary_voltage 120 V;    
      power_rating 30.0;     
      powerC_rating 30.0;     
      resistance 0.00500;     
      reactance 0.00333;     
      shunt_impedance 350.040+331.129j;     
}       

object transformer_configuration {     
      name transformer_configuration_1033;     
      connect_type SINGLE_PHASE_CENTER_TAPPED;     
      install_type POLETOP;     
      primary_voltage 7200 V;    
      secondary_voltage 120 V;    
      power_rating 75.0;     
      powerC_rating 75.0;     
      resistance 0.00200;     
      reactance 0.00133;     
      shunt_impedance 443.910+520.152j;     
}       

object transformer_configuration {     
      name transformer_configuration_1034;     
      connect_type SINGLE_PHASE_CENTER_TAPPED;     
      install_type POLETOP;     
      primary_voltage 7200 V;    
      secondary_voltage 120 V;    
      power_rating 37.5;     
      powerC_rating 37.5;     
      resistance 0.00400;     
      reactance 0.00267;     
      shunt_impedance 365.685+395.664j;     
}       

object transformer_configuration {     
      name transformer_configuration_1035;     
      connect_type SINGLE_PHASE_CENTER_TAPPED;     
      install_type POLETOP;     
      primary_voltage 7200 V;    
      secondary_voltage 120 V;    
      power_rating 15.0;     
      powerC_rating 15.0;     
      resistance 0.01000;     
      reactance 0.00667;     
      shunt_impedance 318.750+320.520j;     
}       

object transformer_configuration {     
      name transformer_configuration_1174;     
      connect_type WYE_WYE;     
      install_type POLETOP;     
      primary_voltage 12470.000 V;    
      secondary_voltage 480 V;    
      power_rating 300.0;     
      powerA_rating 100.0;     
      powerB_rating 100.0;     
      powerC_rating 100.0;     
      resistance 0.00033;     
      reactance 0.00167;     
      shunt_impedance 913.260+881.010j;     
}       

object transformer_configuration {     
      name transformer_configuration_1175;     
      connect_type WYE_WYE;     
      install_type POLETOP;     
      primary_voltage 12470.000 V;    
      secondary_voltage 480 V;    
      power_rating 150.0;     
      powerA_rating 50.0;     
      powerB_rating 50.0;     
      powerC_rating 50.0;     
      resistance 0.00067;     
      reactance 0.00333;     
      shunt_impedance 600.360+702.010j;     
}       

object transformer_configuration {     
      name transformer_configuration_1176;     
      connect_type WYE_WYE;     
      install_type POLETOP;     
      primary_voltage 12470.000 V;    
      secondary_voltage 480 V;    
      power_rating 525.0;     
      powerA_rating 175.0;     
      powerB_rating 175.0;     
      powerC_rating 175.0;     
      resistance 0.00019;     
      reactance 0.00095;     
      shunt_impedance 1382.610+1480.921j;     
}       

object transformer_configuration {     
      name transformer_configuration_1177;     
      connect_type WYE_WYE;     
      install_type POLETOP;     
      primary_voltage 12470.000 V;    
      secondary_voltage 480 V;    
      power_rating 1500.0;     
      powerA_rating 500.0;     
      powerB_rating 500.0;     
      powerC_rating 500.0;     
      resistance 0.00007;     
      reactance 0.00033;     
      shunt_impedance 3416.460+3200.279j;     
}       

object transformer_configuration {     
      name transformer_configuration_1178;     
      connect_type WYE_WYE;     
      install_type POLETOP;     
      primary_voltage 12470.000 V;    
      secondary_voltage 480 V;    
      power_rating 1012.5;     
      powerA_rating 337.5;     
      powerB_rating 337.5;     
      powerC_rating 337.5;     
      resistance 0.00010;     
      reactance 0.00049;     
      shunt_impedance 2399.535+2493.771j;     
}       

object transformer_configuration {     
      name transformer_configuration_1179;     
      connect_type WYE_WYE;     
      install_type POLETOP;     
      primary_voltage 12470.000 V;    
      secondary_voltage 480 V;    
      power_rating 25.0;     
      powerA_rating 25.0;     
      resistance 0.00400;     
      reactance 0.02000;     
      shunt_impedance 339.610+309.794j;     
}       

object transformer_configuration {     
      name transformer_configuration_1180;     
      connect_type WYE_WYE;     
      install_type POLETOP;     
      primary_voltage 12470.000 V;    
      secondary_voltage 480 V;    
      power_rating 3000.0;     
      powerA_rating 1000.0;     
      powerB_rating 1000.0;     
      powerC_rating 1000.0;     
      resistance 0.00003;     
      reactance 0.00017;     
      shunt_impedance 6545.460+6642.952j;     
}       

object transformer_configuration {     
      name transformer_configuration_1181;     
      connect_type WYE_WYE;     
      install_type POLETOP;     
      primary_voltage 12470.000 V;    
      secondary_voltage 480 V;    
      power_rating 75.0;     
      powerA_rating 25.0;     
      powerB_rating 25.0;     
      powerC_rating 25.0;     
      resistance 0.00133;     
      reactance 0.00667;     
      shunt_impedance 443.910+511.912j;     
}       

object transformer_configuration {     
      name transformer_configuration_1182;     
      connect_type WYE_WYE;     
      install_type POLETOP;     
      primary_voltage 12470.000 V;    
      secondary_voltage 480 V;    
      power_rating 100.0;     
      powerA_rating 100.0;     
      resistance 0.00100;     
      reactance 0.00500;     
      shunt_impedance 496.060+522.443j;     
}       

object transformer_configuration {     
      name transformer_configuration_1183;     
      connect_type WYE_WYE;     
      install_type POLETOP;     
      primary_voltage 12470.000 V;    
      secondary_voltage 480 V;    
      power_rating 50.0;     
      powerA_rating 0.0;     
      powerB_rating 50.0;     
      resistance 0.00200;     
      reactance 0.01000;     
      shunt_impedance 391.760+361.999j;     
}       

object transformer_configuration {     
      name transformer_configuration_1184;     
      connect_type WYE_WYE;     
      install_type POLETOP;     
      primary_voltage 12470.000 V;    
      secondary_voltage 480 V;    
      power_rating 25.0;     
      powerA_rating 0.0;     
      powerB_rating 25.0;     
      powerC_rating 0.0;     
      resistance 0.00400;     
      reactance 0.02000;     
      shunt_impedance 339.610+351.428j;     
}       

object transformer_configuration {     
      name transformer_configuration_1185;     
      connect_type WYE_WYE;     
      install_type POLETOP;     
      primary_voltage 12470.000 V;    
      secondary_voltage 480 V;    
      power_rating 50.0;     
      powerA_rating 50.0;     
      resistance 0.00200;     
      reactance 0.01000;     
      shunt_impedance 391.760+364.423j;     
}       

object transformer_configuration {     
      name transformer_configuration_1186;     
      connect_type WYE_WYE;     
      install_type POLETOP;     
      primary_voltage 12470.000 V;    
      secondary_voltage 480 V;    
      power_rating 75.0;     
      powerA_rating 37.5;     
      powerB_rating 0.0;     
      powerC_rating 37.5;     
      resistance 0.00133;     
      reactance 0.00667;     
      shunt_impedance 443.910+533.549j;     
}       

object transformer_configuration {     
      name transformer_configuration_1187;     
      connect_type WYE_WYE;     
      install_type POLETOP;     
      primary_voltage 12470.000 V;    
      secondary_voltage 480 V;    
      power_rating 75.0;     
      powerA_rating 37.5;     
      powerC_rating 37.5;     
      resistance 0.00133;     
      reactance 0.00667;     
      shunt_impedance 443.910+364.286j;     
}       

object transformer_configuration {     
      name transformer_configuration_1188;     
      connect_type WYE_WYE;     
      install_type POLETOP;     
      primary_voltage 12470.000 V;    
      secondary_voltage 480 V;    
      power_rating 150.0;     
      powerA_rating 75.0;     
      powerB_rating 75.0;     
      powerC_rating 0.0;     
      resistance 0.00067;     
      reactance 0.00333;     
      shunt_impedance 600.360+560.766j;     
}       

object transformer_configuration {     
      name transformer_configuration_1189;     
      connect_type WYE_WYE;     
      install_type POLETOP;     
      primary_voltage 12470.000 V;    
      secondary_voltage 480 V;    
      power_rating 25.0;     
      powerA_rating 0.0;     
      powerB_rating 0.0;     
      powerC_rating 25.0;     
      resistance 0.00400;     
      reactance 0.02000;     
      shunt_impedance 339.610+365.809j;     
}       

object transformer_configuration {     
      name transformer_configuration_1190;     
      connect_type WYE_WYE;     
      install_type POLETOP;     
      primary_voltage 12470.000 V;    
      secondary_voltage 480 V;    
      power_rating 20.0;     
      powerA_rating 10.0;     
      powerB_rating 10.0;     
      resistance 0.00500;     
      reactance 0.02500;     
      shunt_impedance 329.180+302.176j;     
}       

object transformer_configuration {     
      name transformer_configuration_1191;     
      connect_type WYE_WYE;     
      install_type POLETOP;     
      primary_voltage 12470.000 V;    
      secondary_voltage 480 V;    
      power_rating 15.0;     
      powerA_rating 0.0;     
      powerB_rating 0.0;     
      powerC_rating 15.0;     
      resistance 0.00667;     
      reactance 0.03333;     
      shunt_impedance 318.750+319.320j;     
}       

object transformer_configuration {     
      name transformer_configuration_1192;     
      connect_type WYE_WYE;     
      install_type POLETOP;     
      primary_voltage 12470.000 V;    
      secondary_voltage 480 V;    
      power_rating 25.0;     
      powerA_rating 25.0;     
      powerB_rating 0.0;     
      powerC_rating 0.0;     
      resistance 0.00400;     
      reactance 0.02000;     
      shunt_impedance 339.610+361.839j;     
}       

object transformer_configuration {     
      name transformer_configuration_1193;     
      connect_type WYE_WYE;     
      install_type POLETOP;     
      primary_voltage 12470.000 V;    
      secondary_voltage 480 V;    
      power_rating 50.0;     
      powerB_rating 50.0;     
      resistance 0.00200;     
      reactance 0.01000;     
      shunt_impedance 391.760+441.032j;     
}       

object transformer_configuration {     
      name transformer_configuration_1194;     
      connect_type WYE_WYE;     
      install_type POLETOP;     
      primary_voltage 12470.000 V;    
      secondary_voltage 480 V;    
      power_rating 75.0;     
      powerA_rating 0.0;     
      powerB_rating 37.5;     
      powerC_rating 37.5;     
      resistance 0.00133;     
      reactance 0.00667;     
      shunt_impedance 443.910+402.756j;     
}       

object transformer_configuration {     
      name transformer_configuration_1195;     
      connect_type WYE_WYE;     
      install_type POLETOP;     
      primary_voltage 12470.000 V;    
      secondary_voltage 480 V;    
      power_rating 112.5;     
      powerA_rating 37.5;     
      powerB_rating 37.5;     
      powerC_rating 37.5;     
      resistance 0.00089;     
      reactance 0.00444;     
      shunt_impedance 522.135+513.265j;     
}       

object transformer_configuration {     
      name transformer_configuration_1196;     
      connect_type WYE_WYE;     
      install_type POLETOP;     
      primary_voltage 12470.000 V;    
      secondary_voltage 480 V;    
      power_rating 25.0;     
      powerA_rating 0.0;     
      powerB_rating 25.0;     
      resistance 0.00400;     
      reactance 0.02000;     
      shunt_impedance 339.610+323.592j;     
}       

object transformer_configuration {     
      name transformer_configuration_1197;     
      connect_type WYE_WYE;     
      install_type POLETOP;     
      primary_voltage 12470.000 V;    
      secondary_voltage 480 V;    
      power_rating 50.0;     
      powerA_rating 25.0;     
      powerB_rating 0.0;     
      powerC_rating 25.0;     
      resistance 0.00200;     
      reactance 0.01000;     
      shunt_impedance 391.760+387.285j;     
}       

object transformer_configuration {     
      name transformer_configuration_1198;     
      connect_type WYE_WYE;     
      install_type POLETOP;     
      primary_voltage 12470.000 V;    
      secondary_voltage 480 V;    
      power_rating 75.0;     
      powerA_rating 37.5;     
      powerB_rating 37.5;     
      resistance 0.00133;     
      reactance 0.00667;     
      shunt_impedance 443.910+460.312j;     
}       

object triplex_line_conductor {     
      name triplex_4/0 AA;    
      resistance 0.48;     
      geometric_mean_radius 0.0158;     
}       

object triplex_line_configuration {     
      name triplex_line_configuration_1;     
      conductor_1 triplex_4/0 AA;    
      conductor_2 triplex_4/0 AA;    
      conductor_N triplex_4/0 AA;    
      insulation_thickness 0.08;     
      diameter 0.522;     
}       

object underground_line_conductor {     
      name underground_line_conductor_9;     
      //name 2 AL (Conc);   
      rating.summer.continuous 112.0;     
      outer_diameter 1.09;     
      conductor_gmr 0.0088 ft;    
      conductor_diameter 0.292;     
      conductor_resistance 1.38336;     
      neutral_gmr 0.0348162687755351 ft;    
      neutral_resistance 13.5696;     
      neutral_diameter 0.0641;     
      neutral_strands 6.0;     
      shield_gmr 0.00;     
      shield_resistance 0.00;     
}       

object underground_line_conductor {     
      name underground_line_conductor_10;     
      //name 4/0 AAC (Conc);   
      rating.summer.continuous 214.0;     
      outer_diameter 1.32;     
      conductor_gmr 0.0177 ft;    
      conductor_diameter 0.528;     
      conductor_resistance 0.433488;     
      neutral_gmr 0.0485380344339232 ft;    
      neutral_resistance 13.5696;     
      neutral_diameter 0.0641;     
      neutral_strands 11.0;     
      shield_gmr 0.00;     
      shield_resistance 0.00;     
}       

object underground_line_conductor {     
      name underground_line_conductor_11;     
      //name 750 AAC (Conc);   
      rating.summer.continuous 425.0;     
      outer_diameter 1.96;     
      conductor_gmr 0.0321 ft;    
      conductor_diameter 0.998;     
      conductor_resistance 0.122496;     
      neutral_gmr 0.0751564095285873 ft;    
      neutral_resistance 5.3856;     
      neutral_diameter 0.1019;     
      neutral_strands 15.0;     
      shield_gmr 0.00;     
      shield_resistance 0.00;     
}       

object underground_line_conductor {     
      name underground_line_conductor_12;     
      //name 1000 AAC (Conc);   
      rating.summer.continuous 488.0;     
      outer_diameter 2.15;     
      conductor_gmr 0.0371 ft;    
      conductor_diameter 1.152;     
      conductor_resistance 0.091872;     
      neutral_gmr 0.0842565914341201 ft;    
      neutral_resistance 5.3856;     
      neutral_diameter 0.1019;     
      neutral_strands 20.0;     
      shield_gmr 0.00;     
      shield_resistance 0.00;     
}       

object transformer_configuration {
     name trans_config_to_feeder;
     connect_type WYE_WYE;
     install_type PADMOUNT;
     primary_voltage 230000;
     secondary_voltage 12470.000;
     power_rating 5.6 MVA;
     impedance 0.00033+0.0022j;
}

//Start actual feeder

object meter {
     name network_node;
     bustype SWING;
     nominal_voltage 230000;
     object player {
          property voltage_A;
          loop 100;
          file V_A.player;
     };
     object player {
          property voltage_B;
          loop 100;
          file V_B.player;
     };
     object player {
          property voltage_C;
          loop 100;
          file V_C.player;
     };
     phases ABCN;
}

object transformer {
     name substation_transformer;
     from network_node;
     to R5-12-47-2_node_317;
     phases ABCN;
     configuration trans_config_to_feeder;
}

        
object regulator {     
      name R5-12-47-2_reg_1;     
      from R5-12-47-2_node_317;     
      to R5-12-47-2_meter_47;     
      phases ABCN;     
      configuration feeder_reg_cfg;     
}       
object capacitor {     
      name R5-12-47-2_cap_1;     
      phases ABCN;     
      pt_phase B;     
      parent R5-12-47-2_node_226;     
      phases_connected ABC;     
      control VOLT;     
      voltage_set_high 7300;     
      voltage_set_low 7100;     
      capacitor_A 0.2 MVAr;    
      capacitor_B 0.2 MVAr;    
      capacitor_C 0.2 MVAr;    
      control_level INDIVIDUAL;     
      time_delay 30.0;     
      dwell_time 30.0;     
      cap_nominal_voltage 7200;     
      nominal_voltage 7200;     
}       
object fuse {     
      name R5-12-47-2_fuse_1;     
      phases ABCN;     
      from R5-12-47-2_node_50;     
      to R5-12-47-2_node_172;     
      current_limit 50000;// 150;    
      status CLOSED;     
}       
object fuse {     
      name R5-12-47-2_fuse_2;     
      phases ABCN;     
      from R5-12-47-2_node_49;     
      to R5-12-47-2_node_173;     
      current_limit 50000;// 150;    
      status CLOSED;     
}       
object fuse {     
      name R5-12-47-2_fuse_3;     
      phases ABCN;     
      from R5-12-47-2_node_18;     
      to R5-12-47-2_node_191;     
      current_limit 50000;// 200;    
      status CLOSED;     
}       
object fuse {     
      name R5-12-47-2_fuse_4;     
      phases ABCN;     
      from R5-12-47-2_node_17;     
      to R5-12-47-2_node_199;     
      current_limit 50000;// 200;    
      status CLOSED;     
}       
object fuse {     
      name R5-12-47-2_fuse_5;     
      phases ABCN;     
      from R5-12-47-2_node_20;     
      to R5-12-47-2_node_188;     
      current_limit 50000;// 200;    
      status CLOSED;     
}       
object fuse {     
      name R5-12-47-2_fuse_6;     
      phases ABCN;     
      from R5-12-47-2_node_19;     
      to R5-12-47-2_node_202;     
      current_limit 50000;// 200;    
      status CLOSED;     
}       
object fuse {     
      name R5-12-47-2_fuse_7;     
      phases ABCN;     
      from R5-12-47-2_node_57;     
      to R5-12-47-2_node_198;     
      current_limit 50000;// 200;    
      status CLOSED;     
}       
object fuse {     
      name R5-12-47-2_fuse_8;     
      phases AN;     
      from R5-12-47-2_node_38;     
      to R5-12-47-2_node_189;     
      current_limit 50000;// 200;    
      status CLOSED;     
}       
object fuse {     
      name R5-12-47-2_fuse_9;     
      phases AN;     
      from R5-12-47-2_node_37;     
      to R5-12-47-2_node_200;     
      current_limit 50000;// 200;    
      status CLOSED;     
}       
object fuse {     
      name R5-12-47-2_fuse_10;     
      phases ABCN;     
      from R5-12-47-2_node_56;     
      to R5-12-47-2_node_197;     
      current_limit 50000;// 200;    
      status CLOSED;     
}       
object fuse {     
      name R5-12-47-2_fuse_11;     
      phases ABCN;     
      from R5-12-47-2_node_44;     
      to R5-12-47-2_node_196;     
      current_limit 50000;// 25;    
      status CLOSED;     
}       
object fuse {     
      name R5-12-47-2_fuse_12;     
      phases ABN;     
      from R5-12-47-2_node_42;     
      to R5-12-47-2_node_203;     
      current_limit 50000;// 25;    
      status CLOSED;     
}       
object fuse {     
      name R5-12-47-2_fuse_13;     
      phases AN;     
      from R5-12-47-2_node_51;     
      to R5-12-47-2_node_204;     
      current_limit 50000;// 25;    
      status CLOSED;     
}       
object fuse {     
      name R5-12-47-2_fuse_14;     
      phases ABCN;     
      from R5-12-47-2_node_46;     
      to R5-12-47-2_node_178;     
      current_limit 50000;// 40;    
      status CLOSED;     
}       
object fuse {     
      name R5-12-47-2_fuse_15;     
      phases ABCN;     
      from R5-12-47-2_node_16;     
      to R5-12-47-2_node_175;     
      current_limit 50000;// 200;    
      status CLOSED;     
}       
object fuse {     
      name R5-12-47-2_fuse_16;     
      phases ABCN;     
      from R5-12-47-2_node_15;     
      to R5-12-47-2_node_186;     
      current_limit 50000;// 200;    
      status CLOSED;     
}       
object fuse {     
      name R5-12-47-2_fuse_17;     
      phases ABCN;     
      from R5-12-47-2_node_21;     
      to R5-12-47-2_node_184;     
      current_limit 50000;// 25;    
      status CLOSED;     
}       
object fuse {     
      name R5-12-47-2_fuse_18;     
      phases ABCN;     
      from R5-12-47-2_node_9;     
      to R5-12-47-2_node_171;     
      current_limit 50000;// 25;    
      status CLOSED;     
}       
object fuse {     
      name R5-12-47-2_fuse_19;     
      phases ACN;     
      from R5-12-47-2_node_9;     
      to R5-12-47-2_node_170;     
      current_limit 50000;// 25;    
      status CLOSED;     
}       
object fuse {     
      name R5-12-47-2_fuse_20;     
      phases ABCN;     
      from R5-12-47-2_node_8;     
      to R5-12-47-2_node_179;     
      current_limit 50000;// 50;    
      status CLOSED;     
}       
object fuse {     
      name R5-12-47-2_fuse_21;     
      phases ABCN;     
      from R5-12-47-2_node_6;     
      to R5-12-47-2_node_176;     
      current_limit 50000;// 25;    
      status CLOSED;     
}       
object fuse {     
      name R5-12-47-2_fuse_22;     
      phases ABCN;     
      from R5-12-47-2_node_53;     
      to R5-12-47-2_node_182;     
      current_limit 50000;// 25;    
      status CLOSED;     
}       
object fuse {     
      name R5-12-47-2_fuse_23;     
      phases ABCN;     
      from R5-12-47-2_node_5;     
      to R5-12-47-2_node_177;     
      current_limit 50000;// 50;    
      status CLOSED;     
}       
object fuse {     
      name R5-12-47-2_fuse_24;     
      phases ABCN;     
      from R5-12-47-2_node_42;     
      to R5-12-47-2_node_183;     
      current_limit 50000;// 10;    
      status CLOSED;     
}       
object fuse {     
      name R5-12-47-2_fuse_25;     
      phases CN;     
      from R5-12-47-2_node_3;     
      to R5-12-47-2_node_174;     
      current_limit 50000;// 25;    
      status CLOSED;     
}       
object fuse {     
      name R5-12-47-2_fuse_26;     
      phases BN;     
      from R5-12-47-2_node_5;     
      to R5-12-47-2_node_195;     
      current_limit 50000;// 25;    
      status CLOSED;     
}       
object fuse {     
      name R5-12-47-2_fuse_27;     
      phases ABCN;     
      from R5-12-47-2_node_30;     
      to R5-12-47-2_node_185;     
      current_limit 50000;// 25;    
      status CLOSED;     
}       
object fuse {     
      name R5-12-47-2_fuse_28;     
      phases ABCN;     
      from R5-12-47-2_node_4;     
      to R5-12-47-2_node_180;     
      current_limit 50000;// 15;    
      status CLOSED;     
}       
object fuse {     
      name R5-12-47-2_fuse_29;     
      phases ABCN;     
      from R5-12-47-2_node_29;     
      to R5-12-47-2_node_192;     
      current_limit 50000;// 25;    
      status CLOSED;     
}       
object fuse {     
      name R5-12-47-2_fuse_30;     
      phases ABCN;     
      from R5-12-47-2_node_30;     
      to R5-12-47-2_node_190;     
      current_limit 50000;// 25;    
      status CLOSED;     
}       
object fuse {     
      name R5-12-47-2_fuse_31;     
      phases ABCN;     
      from R5-12-47-2_node_3;     
      to R5-12-47-2_node_194;     
      current_limit 50000;// 100;    
      status CLOSED;     
}       
object fuse {     
      name R5-12-47-2_fuse_32;     
      phases CN;     
      from R5-12-47-2_node_2;     
      to R5-12-47-2_node_193;     
      current_limit 50000;// 10;    
      status CLOSED;     
}       
object fuse {     
      name R5-12-47-2_fuse_33;     
      phases CN;     
      from R5-12-47-2_node_32;     
      to R5-12-47-2_node_181;     
      current_limit 50000;// 6;    
      status CLOSED;     
}       
object fuse {     
      name R5-12-47-2_fuse_34;     
      phases ABCN;     
      from R5-12-47-2_node_210;     
      to R5-12-47-2_node_187;     
      current_limit 50000;// 200;    
      status CLOSED;     
}       
object fuse {     
      name R5-12-47-2_fuse_35;     
      phases ABCN;     
      from R5-12-47-2_node_293;     
      to R5-12-47-2_node_201;     
      current_limit 50000;// 200;    
      status CLOSED;     
}       

object node {
      name R5-12-47-2_load_1;     
      parent R5-12-47-2_meter_1;     
      phases ABCN;     
      nominal_voltage 480.00;
}


object node {
      name R5-12-47-2_load_2;     
      parent R5-12-47-2_meter_2;     
      phases ABCN;     
      nominal_voltage 480.00;
}


object node {
      name R5-12-47-2_load_3;     
      parent R5-12-47-2_meter_3;     
      phases ABCN;     
      nominal_voltage 480.00;
}


object node {
      name R5-12-47-2_load_4;     
      parent R5-12-47-2_meter_4;     
      phases ABCN;     
      nominal_voltage 480.00;
}


object node {
      name R5-12-47-2_load_5;     
      parent R5-12-47-2_meter_5;     
      phases ABCN;     
      nominal_voltage 480.00;
}


object node {
      name R5-12-47-2_load_6;     
      parent R5-12-47-2_meter_6;     
      phases ABCN;     
      nominal_voltage 480.00;
}


object node {
      name R5-12-47-2_load_7;     
      parent R5-12-47-2_meter_7;     
      phases ABCN;     
      nominal_voltage 480.00;
}


object node {
      name R5-12-47-2_load_8;     
      parent R5-12-47-2_meter_8;     
      phases ABCN;     
      nominal_voltage 480.00;
}


object node {
      name R5-12-47-2_load_9;     
      parent R5-12-47-2_meter_9;     
      phases ABCN;     
      nominal_voltage 480.00;
}


object node {
      name R5-12-47-2_load_10;     
      parent R5-12-47-2_meter_10;     
      phases ABCN;     
      nominal_voltage 480.00;
}


object node {
      name R5-12-47-2_load_11;     
      parent R5-12-47-2_meter_11;     
      phases ABCN;     
      nominal_voltage 480.00;
}


object node {
      name R5-12-47-2_load_12;     
      parent R5-12-47-2_meter_12;     
      phases ABCN;     
      nominal_voltage 480.00;
}


object node {
      name R5-12-47-2_load_13;     
      parent R5-12-47-2_meter_13;     
      phases ABCN;     
      nominal_voltage 480.00;
}


object node {
      name R5-12-47-2_load_14;     
      parent R5-12-47-2_meter_14;     
      phases AN;     
      nominal_voltage 480.00;
}


object node {
      name R5-12-47-2_load_15;     
      parent R5-12-47-2_meter_15;     
      phases ABCN;     
      nominal_voltage 480.00;
}


object node {
      name R5-12-47-2_load_16;     
      parent R5-12-47-2_meter_16;     
      phases ABCN;     
      nominal_voltage 480.00;
}


object node {
      name R5-12-47-2_load_17;     
      parent R5-12-47-2_meter_17;     
      phases ABCN;     
      nominal_voltage 480.00;
}


object node {
      name R5-12-47-2_load_18;     
      parent R5-12-47-2_meter_18;     
      phases ABCN;     
      nominal_voltage 480.00;
}


object node {
      name R5-12-47-2_load_19;     
      parent R5-12-47-2_meter_19;     
      phases AN;     
      nominal_voltage 480.00;
}


object node {
      name R5-12-47-2_load_20;     
      parent R5-12-47-2_meter_20;     
      phases AN;     
      nominal_voltage 480.00;
}


object node {
      name R5-12-47-2_load_21;     
      parent R5-12-47-2_meter_21;     
      phases ABCN;     
      nominal_voltage 480.00;
}


object node {
      name R5-12-47-2_load_22;     
      parent R5-12-47-2_meter_22;     
      phases ABN;     
      nominal_voltage 480.00;
}


object node {
      name R5-12-47-2_load_23;     
      parent R5-12-47-2_meter_23;     
      phases ABCN;     
      nominal_voltage 480.00;
}


object node {
      name R5-12-47-2_load_24;     
      parent R5-12-47-2_meter_24;     
      phases AN;     
      nominal_voltage 480.00;
}


object node {
      name R5-12-47-2_load_25;     
      parent R5-12-47-2_meter_25;     
      phases ABCN;     
      nominal_voltage 480.00;
}


object node {
      name R5-12-47-2_load_26;     
      parent R5-12-47-2_meter_26;     
      phases ABCN;     
      nominal_voltage 480.00;
}


object node {
      name R5-12-47-2_load_27;     
      parent R5-12-47-2_meter_27;     
      phases ACN;     
      nominal_voltage 480.00;
}


object node {
      name R5-12-47-2_load_28;     
      parent R5-12-47-2_meter_28;     
      phases ABCN;     
      nominal_voltage 480.00;
}


object node {
      name R5-12-47-2_load_29;     
      parent R5-12-47-2_meter_29;     
      phases ABCN;     
      nominal_voltage 480.00;
}


object node {
      name R5-12-47-2_load_30;     
      parent R5-12-47-2_meter_30;     
      phases ABCN;     
      nominal_voltage 480.00;
}


object node {
      name R5-12-47-2_load_31;     
      parent R5-12-47-2_meter_31;     
      phases ABCN;     
      nominal_voltage 480.00;
}


object node {
      name R5-12-47-2_load_32;     
      parent R5-12-47-2_meter_32;     
      phases ABN;     
      nominal_voltage 480.00;
}


object node {
      name R5-12-47-2_load_33;     
      parent R5-12-47-2_meter_33;     
      phases ABCN;     
      nominal_voltage 480.00;
}


object node {
      name R5-12-47-2_load_34;     
      parent R5-12-47-2_meter_34;     
      phases ABCN;     
      nominal_voltage 480.00;
}


object node {
      name R5-12-47-2_load_35;     
      parent R5-12-47-2_meter_35;     
      phases ABCN;     
      nominal_voltage 480.00;
}


object node {
      name R5-12-47-2_load_36;     
      parent R5-12-47-2_meter_36;     
      phases ABCN;     
      nominal_voltage 480.00;
}


object node {
      name R5-12-47-2_load_37;     
      parent R5-12-47-2_meter_37;     
      phases BN;     
      nominal_voltage 480.00;
}


object node {
      name R5-12-47-2_load_38;     
      parent R5-12-47-2_meter_38;     
      phases ABCN;     
      nominal_voltage 480.00;
}


object node {
      name R5-12-47-2_load_39;     
      parent R5-12-47-2_meter_39;     
      phases ABCN;     
      nominal_voltage 480.00;
}


object node {
      name R5-12-47-2_load_40;     
      parent R5-12-47-2_meter_40;     
      phases ABCN;     
      nominal_voltage 480.00;
}


object node {
      name R5-12-47-2_load_41;     
      parent R5-12-47-2_meter_41;     
      phases ABN;     
      nominal_voltage 480.00;
}


object node {
      name R5-12-47-2_load_42;     
      parent R5-12-47-2_meter_42;     
      phases ABN;     
      nominal_voltage 480.00;
}


object node {
      name R5-12-47-2_load_43;     
      parent R5-12-47-2_meter_43;     
      phases ABCN;     
      nominal_voltage 480.00;
}


object node {
      name R5-12-47-2_load_44;     
      parent R5-12-47-2_meter_44;     
      phases ABN;     
      nominal_voltage 480.00;
}


object node {
      name R5-12-47-2_load_45;     
      parent R5-12-47-2_meter_45;     
      phases ABN;     
      nominal_voltage 480.00;
}


object node {
      name R5-12-47-2_load_46;     
      parent R5-12-47-2_meter_46;     
      phases ABCN;     
      nominal_voltage 480.00;
}

object meter {     
      name R5-12-47-2_meter_1;     
      phases ABCN;     
      voltage_A 7200+0.0j;     
      voltage_B -3600-6235j;     
      voltage_C -3600+6235j;     
      nominal_voltage 480;     
}       
object meter {     
      name R5-12-47-2_meter_2;     
      phases ABCN;     
      voltage_A 7200+0.0j;     
      voltage_B -3600-6235j;     
      voltage_C -3600+6235j;     
      nominal_voltage 480;     
}       
object meter {     
      name R5-12-47-2_meter_3;     
      phases ABCN;     
      voltage_A 7200+0.0j;     
      voltage_B -3600-6235j;     
      voltage_C -3600+6235j;     
      nominal_voltage 480;     
}       
object meter {     
      name R5-12-47-2_meter_4;     
      phases ABCN;     
      voltage_A 7200+0.0j;     
      voltage_B -3600-6235j;     
      voltage_C -3600+6235j;     
      nominal_voltage 480;     
}       
object meter {     
      name R5-12-47-2_meter_5;     
      phases ABCN;     
      voltage_A 7200+0.0j;     
      voltage_B -3600-6235j;     
      voltage_C -3600+6235j;     
      nominal_voltage 480;     
}       
object meter {     
      name R5-12-47-2_meter_6;     
      phases ABCN;     
      voltage_A 7200+0.0j;     
      voltage_B -3600-6235j;     
      voltage_C -3600+6235j;     
      nominal_voltage 480;     
}       
object meter {     
      name R5-12-47-2_meter_7;     
      phases ABCN;     
      voltage_A 7200+0.0j;     
      voltage_B -3600-6235j;     
      voltage_C -3600+6235j;     
      nominal_voltage 480;     
}       
object meter {     
      name R5-12-47-2_meter_8;     
      phases ABCN;     
      voltage_A 7200+0.0j;     
      voltage_B -3600-6235j;     
      voltage_C -3600+6235j;     
      nominal_voltage 480;     
}       
object meter {     
      name R5-12-47-2_meter_9;     
      phases ABCN;     
      voltage_A 7200+0.0j;     
      voltage_B -3600-6235j;     
      voltage_C -3600+6235j;     
      nominal_voltage 480;     
}       
object meter {     
      name R5-12-47-2_meter_10;     
      phases ABCN;     
      voltage_A 7200+0.0j;     
      voltage_B -3600-6235j;     
      voltage_C -3600+6235j;     
      nominal_voltage 480;     
}       
object meter {     
      name R5-12-47-2_meter_11;     
      phases ABCN;     
      voltage_A 7200+0.0j;     
      voltage_B -3600-6235j;     
      voltage_C -3600+6235j;     
      nominal_voltage 480;     
}       
object meter {     
      name R5-12-47-2_meter_12;     
      phases ABCN;     
      voltage_A 7200+0.0j;     
      voltage_B -3600-6235j;     
      voltage_C -3600+6235j;     
      nominal_voltage 480;     
}       
object meter {     
      name R5-12-47-2_meter_13;     
      phases ABCN;     
      voltage_A 7200+0.0j;     
      voltage_B -3600-6235j;     
      voltage_C -3600+6235j;     
      nominal_voltage 480;     
}       
object meter {     
      name R5-12-47-2_meter_14;     
      phases AN;     
      voltage_A 7200+0.0j;     
      nominal_voltage 480;     
}       
object meter {     
      name R5-12-47-2_meter_15;     
      phases ABCN;     
      voltage_A 7200+0.0j;     
      voltage_B -3600-6235j;     
      voltage_C -3600+6235j;     
      nominal_voltage 480;     
}       
object meter {     
      name R5-12-47-2_meter_16;     
      phases ABCN;     
      voltage_A 7200+0.0j;     
      voltage_B -3600-6235j;     
      voltage_C -3600+6235j;     
      nominal_voltage 480;     
}       
object meter {     
      name R5-12-47-2_meter_17;     
      phases ABCN;     
      voltage_A 7200+0.0j;     
      voltage_B -3600-6235j;     
      voltage_C -3600+6235j;     
      nominal_voltage 480;     
}       
object meter {     
      name R5-12-47-2_meter_18;     
      phases ABCN;     
      voltage_A 7200+0.0j;     
      voltage_B -3600-6235j;     
      voltage_C -3600+6235j;     
      nominal_voltage 480;     
}       
object meter {     
      name R5-12-47-2_meter_19;     
      phases AN;     
      voltage_A 7200+0.0j;     
      nominal_voltage 480;     
}       
object meter {     
      name R5-12-47-2_meter_20;     
      phases AN;     
      voltage_A 7200+0.0j;     
      nominal_voltage 480;     
}       
object meter {     
      name R5-12-47-2_meter_21;     
      phases ABCN;     
      voltage_A 7200+0.0j;     
      voltage_B -3600-6235j;     
      voltage_C -3600+6235j;     
      nominal_voltage 480;     
}       
object meter {     
      name R5-12-47-2_meter_22;     
      phases ABN;     
      voltage_A 7200+0.0j;     
      voltage_B -3600-6235j;     
      nominal_voltage 480;     
}       
object meter {     
      name R5-12-47-2_meter_23;     
      phases ABCN;     
      voltage_A 7200+0.0j;     
      voltage_B -3600-6235j;     
      voltage_C -3600+6235j;     
      nominal_voltage 480;     
}       
object meter {     
      name R5-12-47-2_meter_24;     
      phases AN;     
      voltage_A 7200+0.0j;     
      nominal_voltage 480;     
}       
object meter {     
      name R5-12-47-2_meter_25;     
      phases ABCN;     
      voltage_A 7200+0.0j;     
      voltage_B -3600-6235j;     
      voltage_C -3600+6235j;     
      nominal_voltage 480;     
}       
object meter {     
      name R5-12-47-2_meter_26;     
      phases ABCN;     
      voltage_A 7200+0.0j;     
      voltage_B -3600-6235j;     
      voltage_C -3600+6235j;     
      nominal_voltage 480;     
}       
object meter {     
      name R5-12-47-2_meter_27;     
      phases ACN;     
      voltage_A 7200+0.0j;     
      voltage_C -3600+6235j;     
      nominal_voltage 480;     
}       
object meter {     
      name R5-12-47-2_meter_28;     
      phases ABCN;     
      voltage_A 7200+0.0j;     
      voltage_B -3600-6235j;     
      voltage_C -3600+6235j;     
      nominal_voltage 480;     
}       
object meter {     
      name R5-12-47-2_meter_29;     
      phases ABCN;     
      voltage_A 7200+0.0j;     
      voltage_B -3600-6235j;     
      voltage_C -3600+6235j;     
      nominal_voltage 480;     
}       
object meter {     
      name R5-12-47-2_meter_30;     
      phases ABCN;     
      voltage_A 7200+0.0j;     
      voltage_B -3600-6235j;     
      voltage_C -3600+6235j;     
      nominal_voltage 480;     
}       
object meter {     
      name R5-12-47-2_meter_31;     
      phases ABCN;     
      voltage_A 7200+0.0j;     
      voltage_B -3600-6235j;     
      voltage_C -3600+6235j;     
      nominal_voltage 480;     
}       
object meter {     
      name R5-12-47-2_meter_32;     
      phases ABN;     
      voltage_A 7200+0.0j;     
      voltage_B -3600-6235j;     
      nominal_voltage 480;     
}       
object meter {     
      name R5-12-47-2_meter_33;     
      phases ABCN;     
      voltage_A 7200+0.0j;     
      voltage_B -3600-6235j;     
      voltage_C -3600+6235j;     
      nominal_voltage 480;     
}       
object meter {     
      name R5-12-47-2_meter_34;     
      phases ABCN;     
...